$# LS-DYNA Keyword file created by WB-LSDYNA 2023 R2
*KEYWORD
*PARAMETER_DUPLICATION
4
*DATABASE_FORMAT
$    iform   ibinary                                                      unused
         0         0                                                            
*CONTROL_TERMINATION
$   endtim    endcyc     dtmin    endeng    endmas                        unused
         1  10000000     0.001         0    100000                              
*CONTROL_TIMESTEP
$   dtinit    tssfac      isdo    tslimt     dt2ms      lctm     erode     ms1st
         0       0.9         0         0         0         0         1         0
$   dt2msf   dt2mslc     imscl                                            unused
         0         0         0                                                  
*CONTROL_CONTACT
$   slsfac    rwnpal    islchk    shlthk    penopt    thkchg     orien    enmass
         0         0         1         1         1         0         2         0
$   usrstr   usrfric     nsbcs    interm     xpene     ssthk      ecdt   tiedprj
         0         0         0         0         0         0         0         0
$    sfric     dfric       edc       vfc        th     th_sf    pen_sf    unused
         0         0         0         0         0         0         0          
$   ignore    frceng   skiprwg    outseg   spotstp   spotdel   spothin   unused1
         2         1         0         1         0         1       0.5          
$     isym    nserod    rwgaps    rwgdth     rwksf      icov    swradf    ithoff
         0         0         0         0         0         0         0         0
$   shledg    pstiff    ithcnt    tdcnof     ftall                       unused2
         1         0         0         0         1                              
*CONTROL_ENERGY
$     hgen      rwen    slnten     rylen                                  unused
         2         2         2         2                                        
*CONTROL_ACCURACY
$      osu       inn    pidosu                                            unused
         0         1         0                                                 0
*CONTROL_BULK_VISCOSITY
$       q1        q2      type                                            unused
       1.5      0.06        -2                                                  
*CONTROL_SOLID
$    esort    fmatrx   niptets    swlocl                                  unused
         1         0         0         0                                        
$    pm1     pm2     pm3     pm4     pm5     pm6     pm7     pm8     pm9    pm10
       0       0       0       0       0       0       0       0       0       0
*CONTROL_SHELL
$   wrpang     esort     irnxx    istupd    theory       bwc     miter      proj
        20         1        -1         4         2         1         1         1
$  rotascl    intgrd    lamsht    cstyp6    tshell    nfail1    nfail4   psnfail
         0         0         0         0         0         1         1         0
$   pstupd    irquad     cntco                                            unused
         0         0         2                                                  
*CONTROL_OUTPUT
$    npopt    neecho    nrefup    iaccop     opifs    ipnint    ikedit    iflush
         1         0         0         0         0         0         0         0
$    iprtf    ierode     tet10    msgmax    ipcurv                        unused
         0         0         0         0         0                              
*CONTROL_PARALLEL
$     ncpu    numrhs    consti      para                                  unused
         0         0         1         0                                        
*CONTROL_SOLUTION
$     soln       nlq     isnan     lcint                                  unused
         0         0         0         0                                        
*CONTROL_HOURGLASS
$      ihq        qh                                                     unused1
         5       0.1                                                            
*SECTION_SOLID
$       ID    elform       aet                                           unused1
         1         1         0                                                  
*MAT_ELASTIC
$       ID        ro         E        pr        da        db         k   unused1
         1  7.85E-09    200000       0.3         0         0         0          
$Material Id = {1,{3E24A291-B2CD-4D55-8AFD-766AC6AB202D}, Structural Steel}
*PART
$                                                             partname   unused1
                                                          Geom-2\Solid          
$       ID     secid       mid     eosid      hgid      grav     adopt      tmid
         1         1         1         0         0         0         0         0
*NODE
       1     -2.79497053      0.00000000     98.27958047                        
       2     -2.78715310     -0.20889622     98.27957701                        
       3     -4.01282623      0.00000000     98.27958047                        
       4     -4.00160259     -0.29991881     98.27957355                        
       5     -2.79497049      0.00000000     97.03606314                        
       6     -2.78715311     -0.20889622     97.03605990                        
       7     -4.01282625      0.00000000     97.03606314                        
       8     -4.00160263     -0.29991881     97.03605665                        
       9     -2.79497049      0.00000000     95.79254580                        
      10     -2.78715311     -0.20889622     95.79254278                        
      11     -4.01282625      0.00000000     95.79254580                        
      12     -4.00160263     -0.29991881     95.79253975                        
      13     -2.79497049      0.00000000     94.54902847                        
      14     -2.78715311     -0.20889621     94.54902566                        
      15     -4.01282625      0.00000000     94.54902847                        
      16     -4.00160263     -0.29991881     94.54902285                        
      17     -2.79497049      0.00000000     93.30551113                        
      18     -2.78715311     -0.20889621     93.30550854                        
      19     -4.01282625      0.00000000     93.30551113                        
      20     -4.00160263     -0.29991881     93.30550595                        
$ ... 16360 like lines cut
*ELEMENT_SOLID
       1       1
       1       2       4       3       5       6       8       7
       2       1
       5       6       8       7       9      10      12      11
       3       1
       9      10      12      11      13      14      16      15
       4       1
      13      14      16      15      17      18      20      19
       5       1
      17      18      20      19      21      22      24      23
       6       1
      21      22      24      23      25      26      28      27
       7       1
      25      26      28      27      29      30      32      31
       8       1
      29      30      32      31      33      34      36      35
       9       1
      33      34      36      35      37      38      40      39
      10       1
      37      38      40      39      41      42      44      43
$ ... 28204 like lines cut
*DEFINE_COORDINATE_SYSTEM
$       ID        xO        yO        zO        xL        yL        zL   unused1
        23         0         0         0         1         0         0          
$       xP        yP        zP                                           unused2
         0         1         0                                                  
*DATABASE_GLSTAT
$       dt    binary      lcur     ioopt     dthff     binhf             unused1
     0.001         3         0         0         0         0                   0
*DATABASE_SPCFORC
$       dt    binary      lcur     ioopt     dthff     binhf             unused1
     0.001         3         0         0         0         0                   0
*DATABASE_RCFORC
$       dt    binary      lcur     ioopt     dthff     binhf             unused1
     0.001         3         0         0         0         0                   0
*DATABASE_NCFORC
$       dt    binary      lcur     ioopt     dthff     binhf             unused1
     0.001         3         0         0         0         0                   0
*DATABASE_BNDOUT
$       dt    binary      lcur     ioopt     dthff     binhf             unused1
     0.001         3         0         0         0         0                   0
*DATABASE_NODOUT
$       dt    binary      lcur     ioopt     dthff     binhf             unused1
     0.001         3         0         0         0         0                   0
*DATABASE_MATSUM
$       dt    binary      lcur     ioopt     dthff     binhf             unused1
     0.001         3         0         0         0         0                   0
*DATABASE_ELOUT
$       dt    binary      lcur     ioopt     dthff     binhf             unused1
     0.001         3         0         0         0         0                   0
*DATABASE_JNTFORC
$       dt    binary      lcur     ioopt     dthff     binhf             unused1
     0.001         3         0         0         0         0                   0
*DATABASE_DEFORC
$       dt    binary      lcur     ioopt     dthff     binhf             unused1
     0.001         3         0         0         0         0                   0
*DATABASE_EXTENT_BINARY
$    neiph     neips    maxint    strflg    sigflg    epsflg    rltflg    engflg
         0         0         0        10         1         1         0         0
$   cmpflg    ieverp    beamip     dcomp      shge     stssz    n3thdt   ialemat
         0         0         0         0         0         0         0         0
$  nintsld   pkp_sen      sclp     hydro     msscl     therm    intout    nodout
         0         0         0         0         2         0                    
*DATABASE_BINARY_D3PLOT
$       dt      lcdt      beam     npltc    psetid                       unused1
      0.05         0         0         0         0                              
$    ioopt                                                               unused2
         0                                                                      
*DATABASE_BINARY_INTFOR
$       dt      lcdt      beam     npltc    psetid                        unused
      0.05         0         0         0         0                              
*DATABASE_BINARY_D3PROP
$    ifile     imatl     iwall                                           unused2
         2         1         0                                                  
*END
