$# LS-DYNA Keyword file created by WB-LSDYNA 2023 R2
*KEYWORD
*PARAMETER_DUPLICATION
4
*DATABASE_FORMAT
$    iform   ibinary                                                      unused
         0         0                                                            
*CONTROL_TERMINATION
$   endtim    endcyc     dtmin    endeng    endmas                        unused
         1  10000000     0.001         0    100000                              
*CONTROL_TIMESTEP
$   dtinit    tssfac      isdo    tslimt     dt2ms      lctm     erode     ms1st
         0       0.9         0         0         0         0         1         0
$   dt2msf   dt2mslc     imscl                                            unused
         0         0         0                                                  
*CONTROL_CONTACT
$   slsfac    rwnpal    islchk    shlthk    penopt    thkchg     orien    enmass
         0         0         1         1         1         0         2         0
$   usrstr   usrfric     nsbcs    interm     xpene     ssthk      ecdt   tiedprj
         0         0         0         0         0         0         0         0
$    sfric     dfric       edc       vfc        th     th_sf    pen_sf    unused
         0         0         0         0         0         0         0          
$   ignore    frceng   skiprwg    outseg   spotstp   spotdel   spothin   unused1
         2         1         0         1         0         1       0.5          
$     isym    nserod    rwgaps    rwgdth     rwksf      icov    swradf    ithoff
         0         0         0         0         0         0         0         0
$   shledg    pstiff    ithcnt    tdcnof     ftall                       unused2
         1         0         0         0         1                              
*CONTROL_ENERGY
$     hgen      rwen    slnten     rylen                                  unused
         2         2         2         2                                        
*CONTROL_ACCURACY
$      osu       inn    pidosu                                            unused
         0         1         0                                                 0
*CONTROL_BULK_VISCOSITY
$       q1        q2      type                                            unused
       1.5      0.06        -2                                                  
*CONTROL_SOLID
$    esort    fmatrx   niptets    swlocl                                  unused
         1         0         0         0                                        
$    pm1     pm2     pm3     pm4     pm5     pm6     pm7     pm8     pm9    pm10
       0       0       0       0       0       0       0       0       0       0
*CONTROL_SHELL
$   wrpang     esort     irnxx    istupd    theory       bwc     miter      proj
        20         1        -1         4         2         1         1         1
$  rotascl    intgrd    lamsht    cstyp6    tshell    nfail1    nfail4   psnfail
         0         0         0         0         0         1         1         0
$   pstupd    irquad     cntco                                            unused
         0         0         2                                                  
*CONTROL_OUTPUT
$    npopt    neecho    nrefup    iaccop     opifs    ipnint    ikedit    iflush
         1         0         0         0         0         0         0         0
$    iprtf    ierode     tet10    msgmax    ipcurv                        unused
         0         0         0         0         0                              
*CONTROL_PARALLEL
$     ncpu    numrhs    consti      para                                  unused
         0         0         1         0                                        
*CONTROL_SOLUTION
$     soln       nlq     isnan     lcint                                  unused
         0         0         0         0                                        
*CONTROL_HOURGLASS
$      ihq        qh                                                     unused1
         5       0.1                                                            
*SECTION_SOLID
$       ID    elform       aet                                           unused1
         1        10         0                                                  
*MAT_RIGID
$       ID        ro         E        pr         n    couple         m     alias
         1  7.85E-09    200000       0.3         0         0         0         0
$      cmo      con1      con2                                           unused1
         1         0         0                                                  
$      lco        A2        A3        V1        V2        V3             unused2
         0         0         0         0         0         0                    
$Material Id = {1,{9B75ACD4-CA7E-48F4-B309-DB51B2EBA297}, Structural Steel}
*PART
$                                                             partname   unused1
                                                          Geom-1\Solid          
$       ID     secid       mid     eosid      hgid      grav     adopt      tmid
         1         1         1         0         0         0         0         0
*NODE
       1     -2.99981670      0.03316240     55.35317510                        
       2     -0.48140971     -2.96112220     55.35317510                        
       3     -2.92352151     -0.67306909     55.35317510                        
       4     -2.68331944     -1.34156504     55.35317510                        
       5     -2.29267741     -1.93484632     55.35317510                        
       6     -1.77349671     -2.41965068     55.35317510                        
       7     -1.15488513     -2.76879763     55.35317510                        
       8     -0.79394824     -2.89303408     79.92794920                        
       9     -1.18247949     -2.75712572     79.38172817                        
      10     -1.54870393     -2.56934158     78.83546637                        
      11     -1.88566550     -2.33329502     78.28909260                        
      12     -2.18740382     -2.05311094     77.74298270                        
      13     -2.44763225     -1.73467472     77.19648024                        
      14     -2.66218490     -1.38302985     76.65049654                        
      15     -2.82626651     -1.00609027     76.10388958                        
      16     -2.93747072     -0.60931583     75.55800605                        
      17     -2.99318399     -0.20211282     75.01131865                        
      18     -2.99263756      0.21004858     74.46550931                        
      19     -2.93586027      0.61702876     73.91876548                        
      20     -2.82355945      1.01366269     73.37300436                        
$ ... 2698 like lines cut
*ELEMENT_SOLID
       1       1
     641    2718     642    1593    1593    1593    1593    1593
       2       1
     642    2718    1350    1593    1593    1593    1593    1593
       3       1
    1484    2718    1593    2211    2211    2211    2211    2211
       4       1
    1350    1593    2718    2211    2211    2211    2211    2211
       5       1
     651    2718    1592    1968    1968    1968    1968    1968
       6       1
     641     651    2718    1592    1592    1592    1592    1592
       7       1
     648    2718     651    1968    1968    1968    1968    1968
       8       1
     641     651     648    2718    2718    2718    2718    2718
       9       1
     642    2718     648    1350    1350    1350    1350    1350
      10       1
     641     648     642    2718    2718    2718    2718    2718
$ ... 23936 like lines cut
*DEFINE_COORDINATE_SYSTEM
$       ID        xO        yO        zO        xL        yL        zL   unused1
        27         0         0         0         1         0         0          
$       xP        yP        zP                                           unused2
         0         1         0                                                  
*CONTACT_AUTOMATIC_SINGLE_SURFACE_ID
$       ID                                                               heading
        32                                                      Body Interaction
$     ssid      msid     sstyp     mstyp    sboxid    mboxid       spr       mpr
         0         0         5         0         0         0         0         0
$       fs        fd        dc        vc       vdc    penchk        bt        dt
         0         0         0         0        10         0         0         0
$      sfs       sfm       sst       mst      sfst      sfmt       fsf       vsf
         0         0         0         0         0         0         0         0
$     soft   softscl    lcidab    maxpar     sbopt     depth     bsort    frcfrq
         2         0         0         0         3         5         0         0
$   penmax    tkhopt    shlthk     snlog      isym     i2d3d    sldthk    sldstf
         0         0         0         0         0         0         0         0
*DATABASE_GLSTAT
$       dt    binary      lcur     ioopt     dthff     binhf             unused1
     0.001         3         0         0         0         0                   0
*DATABASE_SPCFORC
$       dt    binary      lcur     ioopt     dthff     binhf             unused1
     0.001         3         0         0         0         0                   0
*DATABASE_RCFORC
$       dt    binary      lcur     ioopt     dthff     binhf             unused1
     0.001         3         0         0         0         0                   0
*DATABASE_NCFORC
$       dt    binary      lcur     ioopt     dthff     binhf             unused1
     0.001         3         0         0         0         0                   0
*DATABASE_BNDOUT
$       dt    binary      lcur     ioopt     dthff     binhf             unused1
     0.001         3         0         0         0         0                   0
*DATABASE_NODOUT
$       dt    binary      lcur     ioopt     dthff     binhf             unused1
     0.001         3         0         0         0         0                   0
*DATABASE_MATSUM
$       dt    binary      lcur     ioopt     dthff     binhf             unused1
     0.001         3         0         0         0         0                   0
*DATABASE_ELOUT
$       dt    binary      lcur     ioopt     dthff     binhf             unused1
     0.001         3         0         0         0         0                   0
*DATABASE_JNTFORC
$       dt    binary      lcur     ioopt     dthff     binhf             unused1
     0.001         3         0         0         0         0                   0
*DATABASE_DEFORC
$       dt    binary      lcur     ioopt     dthff     binhf             unused1
     0.001         3         0         0         0         0                   0
*DATABASE_EXTENT_BINARY
$    neiph     neips    maxint    strflg    sigflg    epsflg    rltflg    engflg
         0         0         0        10         1         1         0         0
$   cmpflg    ieverp    beamip     dcomp      shge     stssz    n3thdt   ialemat
         0         0         0         0         0         0         0         0
$  nintsld   pkp_sen      sclp     hydro     msscl     therm    intout    nodout
         0         0         0         0         2         0                    
*DATABASE_BINARY_D3PLOT
$       dt      lcdt      beam     npltc    psetid                       unused1
      0.05         0         0         0         0                              
$    ioopt                                                               unused2
         0                                                                      
*DATABASE_BINARY_INTFOR
$       dt      lcdt      beam     npltc    psetid                        unused
      0.05         0         0         0         0                              
*DATABASE_BINARY_D3PROP
$    ifile     imatl     iwall                                           unused2
         2         1         0                                                  
*END
